Version 4
SHEET 1 952 680
WIRE 528 48 208 48
WIRE 528 160 528 48
WIRE 128 208 32 208
FLAG 32 288 0
FLAG 208 240 0
FLAG 528 240 0
SYMBOL voltage 32 192 R0
WINDOW 123 0 0 Left 0
WINDOW 39 24 124 Left 2
SYMATTR SpiceLine Rser=1
SYMATTR InstName Vgs
SYMATTR Value 10
SYMBOL voltage 528 144 R0
WINDOW 123 0 0 Left 0
WINDOW 39 24 124 Left 2
SYMATTR SpiceLine Rser=1
SYMATTR InstName Vds
SYMATTR Value 100
SYMBOL IPB65R190CFDA_L1 192 128 R0
SYMATTR InstName U1
TEXT 584 80 Left 2 !;dc  dec Vds 0 600 25 Vgs 0 20 5
TEXT -272 72 Left 2 !.options gmin=1e-10\n.options abstol=1e-9\n.options reltol=0.003\n.options cshunt=1e-15
TEXT -272 336 Left 2 !.dc dec Vds 1m 600 50 Vgs 0 20 .5
